256
0.0 21.32 0.0 21.32 0.0 21.32
Ar	2.91E+00	1.55E+00	4.72E+00
Ar	4.87E+00	3.46E+00	2.41E+00
Ar	8.96E-01	3.52E+00	2.13E+00
Ar	3.06E+00	1.54E+00	5.61E-02
Ar	8.63E+00	3.63E+00	2.32E+00
Ar	7.38E+00	1.91E+00	5.14E+00
Ar	1.03E+01	1.04E+00	4.53E-01
Ar	7.04E+00	1.02E+00	1.18E-01
Ar	1.08E+01	1.89E+00	4.53E+00
Ar	1.31E+01	3.32E+00	1.65E+00
Ar	1.46E+01	1.33E+00	4.37E+00
Ar	1.54E+01	9.95E-01	5.67E-01
Ar	1.75E+01	3.67E+00	2.35E+00
Ar	1.97E+01	1.67E+00	4.57E+00
Ar	1.96E+01	1.54E+00	2.91E-01
Ar	2.60E+00	1.01E+01	2.84E+00
Ar	2.87E+00	5.84E+00	3.62E+00
Ar	4.78E+00	7.66E+00	1.40E+00
Ar	6.46E-01	7.66E+00	8.85E-01
Ar	6.56E+00	5.83E+00	3.95E+00
Ar	8.89E+00	7.51E+00	1.87E+00
Ar	1.52E+01	9.84E+00	2.37E+00
Ar	1.13E+01	5.78E+00	4.02E+00
Ar	1.27E+01	7.84E+00	1.16E+00
Ar	1.09E+01	1.05E+01	3.00E+00
Ar	1.49E+01	5.93E+00	3.88E+00
Ar	1.99E+01	5.95E+00	3.09E+00
Ar	1.74E+01	7.60E+00	7.54E-01
Ar	1.97E+01	1.02E+01	2.73E+00
Ar	1.75E+01	8.28E+00	4.84E+00
Ar	7.65E-01	9.40E-02	7.01E+00
Ar	4.52E+00	5.24E+00	1.05E+01
Ar	2.54E+00	2.60E+00	8.75E+00
Ar	4.54E+00	4.14E+00	6.38E+00
Ar	4.84E+00	4.08E-01	7.25E+00
Ar	2.01E-01	4.28E+00	5.73E+00
Ar	1.41E-01	5.12E+00	1.05E+01
Ar	9.01E+00	4.84E-01	7.71E+00
Ar	8.98E+00	4.76E+00	6.44E+00
Ar	6.86E+00	3.06E+00	8.84E+00
Ar	1.09E+01	3.33E+00	8.82E+00
Ar	1.32E+01	3.78E+00	6.32E+00
Ar	1.57E+01	2.74E+00	8.46E+00
Ar	1.29E+01	2.82E-01	7.42E+00
Ar	1.39E+01	5.27E+00	1.05E+01
Ar	2.00E+01	2.65E+00	8.23E+00
Ar	1.80E+01	4.47E+00	5.62E+00
Ar	4.64E+00	8.70E+00	5.35E+00
Ar	8.58E-01	8.41E+00	5.44E+00
Ar	5.09E-01	9.95E+00	9.38E+00
Ar	2.46E+00	6.72E+00	8.08E+00
Ar	4.55E+00	9.65E+00	9.26E+00
Ar	8.81E+00	7.98E+00	5.44E+00
Ar	8.89E+00	5.75E+00	9.62E+00
Ar	8.87E+00	9.46E+00	9.54E+00
Ar	6.37E+00	7.06E+00	7.79E+00
Ar	1.39E+01	9.46E+00	5.92E+00
Ar	1.54E+01	6.33E+00	7.69E+00
Ar	1.34E+01	9.75E+00	9.14E+00
Ar	1.20E+01	6.76E+00	7.83E+00
Ar	1.98E+01	7.32E+00	7.65E+00
Ar	1.72E+01	9.98E+00	8.38E+00
Ar	1.80E+01	5.36E+00	9.81E+00
Ar	2.03E+00	3.51E+00	1.26E+01
Ar	4.72E+00	2.14E+00	1.48E+01
Ar	1.30E-01	2.15E+00	1.52E+01
Ar	4.78E+00	1.41E+00	1.14E+01
Ar	7.21E+00	4.01E+00	1.23E+01
Ar	8.70E+00	2.07E+00	1.50E+01
Ar	9.46E+00	1.50E+00	1.12E+01
Ar	1.32E+01	1.29E+00	1.12E+01
Ar	1.09E+01	4.41E+00	1.23E+01
Ar	1.57E+01	3.66E+00	1.30E+01
Ar	1.29E+01	1.88E+00	1.47E+01
Ar	2.11E+01	1.25E+00	1.13E+01
Ar	1.76E+01	1.64E+00	1.08E+01
Ar	1.76E+01	2.21E+00	1.56E+01
Ar	1.95E+01	3.94E+00	1.31E+01
Ar	2.70E+00	7.85E+00	1.19E+01
Ar	4.54E+00	6.10E+00	1.40E+01
Ar	2.51E+00	9.12E+00	1.55E+01
Ar	1.55E-01	6.57E+00	1.40E+01
Ar	4.96E+00	1.02E+01	1.35E+01
Ar	8.67E+00	1.06E+01	1.36E+01
Ar	9.03E+00	6.41E+00	1.44E+01
Ar	6.76E+00	7.65E+00	1.18E+01
Ar	1.11E+01	7.85E+00	1.17E+01
Ar	1.31E+01	6.35E+00	1.44E+01
Ar	1.58E+01	7.94E+00	1.11E+01
Ar	1.36E+01	1.02E+01	1.28E+01
Ar	1.12E+01	8.94E+00	1.57E+01
Ar	1.73E+01	6.66E+00	1.40E+01
Ar	1.95E+01	8.24E+00	1.14E+01
Ar	1.69E+01	1.01E+01	1.36E+01
Ar	2.09E+01	1.05E+01	1.35E+01
Ar	3.00E+00	6.68E-01	1.72E+01
Ar	2.88E+00	4.34E+00	1.66E+01
Ar	4.97E+00	2.90E+00	1.91E+01
Ar	5.21E-01	2.92E+00	1.92E+01
Ar	3.07E+00	5.22E+00	2.11E+01
Ar	6.79E+00	4.60E+00	1.65E+01
Ar	8.53E+00	2.84E+00	1.90E+01
Ar	6.54E+00	2.50E-01	1.71E+01
Ar	1.04E+01	5.29E+00	2.12E+01
Ar	6.78E+00	5.21E+00	2.10E+01
Ar	1.52E+01	4.97E+00	2.10E+01
Ar	1.10E+01	6.41E-01	1.72E+01
Ar	1.10E+01	4.35E+00	1.68E+01
Ar	1.27E+01	2.46E+00	1.94E+01
Ar	1.50E+01	3.74E+00	1.71E+01
Ar	1.52E+01	4.97E-01	1.75E+01
Ar	1.95E+01	1.76E-01	1.75E+01
Ar	1.97E+01	5.08E+00	2.09E+01
Ar	2.01E+01	4.79E+00	1.70E+01
Ar	1.76E+01	2.62E+00	1.93E+01
Ar	9.67E-01	7.10E+00	1.81E+01
Ar	2.57E+00	1.00E+01	1.98E+01
Ar	4.58E+00	6.87E+00	1.84E+01
Ar	6.28E+00	8.53E+00	1.60E+01
Ar	6.70E+00	9.52E+00	2.02E+01
Ar	8.76E+00	6.76E+00	1.82E+01
Ar	1.51E+01	8.50E+00	1.61E+01
Ar	1.07E+01	8.93E+00	2.01E+01
Ar	1.28E+01	6.52E+00	1.86E+01
Ar	1.49E+01	9.24E+00	2.00E+01
Ar	1.94E+01	8.47E+00	1.62E+01
Ar	1.74E+01	6.34E+00	1.82E+01
Ar	1.98E+01	8.84E+00	1.97E+01
Ar	1.72E+01	1.06E+01	1.79E+01
Ar	2.55E+00	1.49E+01	1.73E+00
Ar	4.35E+00	1.29E+01	4.40E+00
Ar	4.32E-01	1.34E+01	4.13E+00
Ar	4.96E+00	1.16E+01	6.81E-01
Ar	7.16E-01	1.22E+01	6.30E-01
Ar	6.70E+00	1.43E+01	1.80E+00
Ar	9.44E+00	1.38E+01	3.99E+00
Ar	9.13E+00	1.20E+01	5.36E-01
Ar	7.00E+00	1.07E+01	3.58E+00
Ar	1.53E+01	1.45E+01	1.73E+00
Ar	1.29E+01	1.28E+01	4.12E+00
Ar	1.27E+01	1.25E+01	8.09E-02
Ar	1.53E+01	1.60E+01	5.19E+00
Ar	1.91E+01	1.43E+01	1.48E+00
Ar	1.65E+01	1.28E+01	4.68E+00
Ar	1.75E+01	1.14E+01	2.29E-01
Ar	2.66E+00	1.84E+01	9.36E-01
Ar	4.97E+00	1.66E+01	3.64E+00
Ar	5.01E-01	1.70E+01	3.34E+00
Ar	2.69E+00	1.91E+01	5.05E+00
Ar	7.37E-01	2.13E+01	2.67E+00
Ar	8.76E+00	1.71E+01	3.14E+00
Ar	6.45E+00	1.86E+01	4.40E-01
Ar	8.64E+00	2.07E+01	2.80E+00
Ar	1.06E+01	1.87E+01	7.98E-01
Ar	5.42E+00	2.08E+01	2.95E+00
Ar	1.26E+01	1.68E+01	2.68E+00
Ar	1.27E+01	2.08E+01	2.39E+00
Ar	1.51E+01	1.83E+01	7.58E-01
Ar	1.51E+01	1.93E+01	4.48E+00
Ar	1.08E+01	1.95E+01	5.21E+00
Ar	1.77E+01	2.09E+01	2.21E+00
Ar	2.00E+01	1.94E+01	5.05E+00
Ar	1.76E+01	1.71E+01	2.99E+00
Ar	1.98E+01	1.85E+01	6.51E-01
Ar	2.31E+00	1.16E+01	6.82E+00
Ar	4.41E+00	1.37E+01	8.62E+00
Ar	2.47E+00	1.55E+01	5.89E+00
Ar	4.86E-01	1.39E+01	8.53E+00
Ar	7.10E+00	1.12E+01	7.08E+00
Ar	6.67E+00	1.54E+01	6.31E+00
Ar	9.02E+00	1.38E+01	8.34E+00
Ar	1.04E+01	1.11E+01	6.80E+00
Ar	6.90E+00	1.59E+01	9.76E+00
Ar	1.14E+01	1.57E+01	6.14E+00
Ar	1.31E+01	1.30E+01	7.63E+00
Ar	2.02E+01	1.12E+01	6.22E+00
Ar	1.73E+01	1.35E+01	8.09E+00
Ar	1.90E+01	1.51E+01	5.65E+00
Ar	1.92E+01	1.60E+01	1.01E+01
Ar	2.26E+00	1.64E+01	1.03E+01
Ar	3.25E-01	1.78E+01	7.43E+00
Ar	2.49E+00	2.04E+01	9.89E+00
Ar	4.87E+00	1.79E+01	7.73E+00
Ar	7.08E+00	1.91E+01	5.59E+00
Ar	9.02E+00	1.79E+01	8.10E+00
Ar	6.81E+00	2.04E+01	9.75E+00
Ar	1.35E+01	1.82E+01	7.66E+00
Ar	1.51E+01	1.61E+01	9.73E+00
Ar	1.11E+01	2.01E+01	9.96E+00
Ar	1.14E+01	1.60E+01	9.91E+00
Ar	1.56E+01	2.01E+01	9.52E+00
Ar	1.95E+01	2.00E+01	9.07E+00
Ar	1.74E+01	1.78E+01	7.16E+00
Ar	1.74E+01	2.12E+01	6.44E+00
Ar	2.80E+00	1.31E+01	1.49E+01
Ar	4.72E+00	1.50E+01	1.24E+01
Ar	1.19E-01	1.47E+01	1.29E+01
Ar	2.70E+00	1.23E+01	1.14E+01
Ar	6.64E+00	1.33E+01	1.47E+01
Ar	9.37E+00	1.46E+01	1.26E+01
Ar	1.07E+01	1.21E+01	1.08E+01
Ar	6.58E+00	1.20E+01	1.09E+01
Ar	1.13E+01	1.23E+01	1.47E+01
Ar	1.52E+01	1.27E+01	1.52E+01
Ar	1.33E+01	1.44E+01	1.26E+01
Ar	1.55E+01	1.22E+01	1.07E+01
Ar	1.74E+01	1.45E+01	1.32E+01
Ar	1.94E+01	1.29E+01	1.52E+01
Ar	1.91E+01	1.18E+01	1.10E+01
Ar	2.27E+00	1.71E+01	1.48E+01
Ar	4.85E+00	1.84E+01	1.21E+01
Ar	1.14E-01	1.89E+01	1.18E+01
Ar	2.37E+00	2.13E+01	1.36E+01
Ar	4.37E+00	1.94E+01	1.57E+01
Ar	7.01E+00	2.10E+01	1.35E+01
Ar	7.52E+00	1.78E+01	1.49E+01
Ar	8.81E+00	1.83E+01	1.18E+01
Ar	1.13E+01	1.69E+01	1.45E+01
Ar	1.08E+01	2.06E+01	1.33E+01
Ar	1.34E+01	1.83E+01	1.17E+01
Ar	1.51E+01	1.69E+01	1.43E+01
Ar	1.32E+01	1.93E+01	1.59E+01
Ar	1.56E+01	2.12E+01	1.34E+01
Ar	1.75E+01	1.81E+01	1.22E+01
Ar	1.96E+01	1.69E+01	1.46E+01
Ar	1.94E+01	2.09E+01	1.38E+01
Ar	4.62E+00	1.60E+01	2.05E+01
Ar	2.59E+00	1.35E+01	1.91E+01
Ar	4.82E+00	1.55E+01	1.64E+01
Ar	4.91E+00	1.11E+01	1.74E+01
Ar	3.48E-01	1.11E+01	1.76E+01
Ar	1.38E-01	1.54E+01	2.05E+01
Ar	9.41E+00	1.54E+01	2.11E+01
Ar	8.64E+00	1.09E+01	1.71E+01
Ar	6.90E+00	1.36E+01	1.96E+01
Ar	9.13E+00	1.46E+01	1.63E+01
Ar	1.30E+01	1.10E+01	1.79E+01
Ar	1.31E+01	1.49E+01	1.67E+01
Ar	1.53E+01	1.34E+01	1.93E+01
Ar	1.29E+01	1.59E+01	2.07E+01
Ar	2.12E+01	1.51E+01	1.71E+01
Ar	1.72E+01	1.51E+01	1.69E+01
Ar	1.95E+01	1.32E+01	1.92E+01
Ar	5.64E-01	1.98E+01	1.61E+01
Ar	8.57E-01	2.07E+01	1.97E+01
Ar	2.19E+00	1.75E+01	1.84E+01
Ar	4.37E+00	1.99E+01	1.94E+01
Ar	7.22E+00	1.71E+01	1.84E+01
Ar	8.94E+00	2.03E+01	1.93E+01
Ar	1.49E+01	1.77E+01	1.82E+01
Ar	1.09E+01	1.79E+01	1.81E+01
Ar	1.29E+01	2.04E+01	2.01E+01
Ar	1.73E+01	1.63E+01	2.05E+01
Ar	1.76E+01	2.02E+01	2.02E+01
Ar	1.71E+01	1.91E+01	1.62E+01
Ar	1.99E+01	1.81E+01	1.83E+01

